/*--------------------------------*- C++ -*----------------------------------*\
| =========                 |                                                 |
| \\      /  F ield         | OpenFOAM: The Open Source CFD Toolbox           |
|  \\    /   O peration     | Version:  v1906                                 |
|   \\  /    A nd           | Web:      www.OpenFOAM.com                      |
|    \\/     M anipulation  |                                                 |
\*---------------------------------------------------------------------------*/
FoamFile
{
    version     2.0;
    format      ascii;
    class       dictionary;
    object      topoSetDict;
}

// * * * * * * * * * * * * * * * * * * * * * * * * * * * * * * * * * * * * * //

actions
(

    {
        name    heatingCellSet;
        type    cellSet;
        action  new;
        source  boxToCell;
        box     (1.25 1.25 2.5) (3.75 3.75 7.5);
    }
    {
        name    heatSource;
        type    cellZoneSet;
        action  new;
        source  setToCellZone;
        set     heatingCellSet;
    }

    // porousBlockage
/*    {
        name    porousBlockageCellSet;
        type    cellSet;
        action  new;
        source  boxToCell;
        box     (-1000 -1000 -1000) (1000 1000 1000);
    }
    {
        name    porousBlockage;
        type    cellZoneSet;
        action  new;
        source  setToCellZone;
        set     porousBlockageCellSet;
    }*/
);

// ************************************************************************* //
