/*--------------------------------*- C++ -*----------------------------------*\
| =========                 |                                                 |
| \\      /  F ield         | OpenFOAM: The Open Source CFD Toolbox           |
|  \\    /   O peration     | Version:  v2012                                 |
|   \\  /    A nd           | Website:  www.openfoam.com                      |
|    \\/     M anipulation  |                                                 |
\*---------------------------------------------------------------------------*/
FoamFile
{
    version     2.0;
    format      ascii;
    class       volScalarField;
    location    "constant";
    object      V;
}
// * * * * * * * * * * * * * * * * * * * * * * * * * * * * * * * * * * * * * //

dimensions      [0 3 0 0 0 0 0];


internalField   nonuniform List<scalar> 
2700
(
0.00215995
0.00215995
0.00215995
0.00215995
0.00215995
0.00215995
0.00215995
0.00215995
0.00215995
0.00215995
0.00215995
0.00215995
0.00215995
0.00215995
0.00215995
0.00215995
0.00215995
0.00215995
0.00215995
0.00215995
0.00238005
0.00252158
0.00267152
0.00283037
0.00299868
0.00317699
0.0033659
0.00356605
0.00377809
0.00400275
0.00424077
0.00449294
0.0047601
0.00504315
0.00534303
0.00566075
0.00599735
0.00635397
0.0067318
0.00713209
0.00755619
0.0080055
0.00848153
0.00898587
0.0095202
0.00205562
0.00205562
0.00205562
0.00205562
0.00205562
0.00205562
0.00205562
0.00205562
0.00205562
0.00205562
0.00205562
0.00205562
0.00205562
0.00205562
0.00205562
0.00205562
0.00205562
0.00205562
0.00205562
0.00205562
0.00226508
0.00239977
0.00254247
0.00269365
0.00285382
0.00302352
0.00320331
0.00339379
0.00359559
0.0038094
0.00403592
0.00427591
0.00453016
0.00479954
0.00508494
0.0053873
0.00570765
0.00604704
0.00640662
0.00678758
0.00719119
0.0076188
0.00807184
0.00855181
0.00906033
0.00195632
0.00195632
0.00195632
0.00195632
0.00195632
0.00195632
0.00195632
0.00195632
0.00195632
0.00195632
0.00195632
0.00195632
0.00195632
0.00195632
0.00195632
0.00195632
0.00195632
0.00195632
0.00195632
0.00195632
0.00215567
0.00228385
0.00241966
0.00256354
0.00271597
0.00287747
0.00304857
0.00322985
0.00342191
0.00362539
0.00384096
0.00406936
0.00431134
0.0045677
0.00483931
0.00512707
0.00543194
0.00575494
0.00609715
0.0064597
0.00684382
0.00725077
0.00768193
0.00813872
0.00862267
0.00186182
0.00186182
0.00186182
0.00186182
0.00186182
0.00186182
0.00186182
0.00186182
0.00186182
0.00186182
0.00186182
0.00186182
0.00186182
0.00186182
0.00186182
0.00186182
0.00186182
0.00186182
0.00186182
0.00186182
0.00205154
0.00217353
0.00230277
0.0024397
0.00258478
0.00273848
0.00290131
0.00307383
0.00325661
0.00345026
0.00365543
0.00387279
0.00410308
0.00434706
0.00460555
0.00487941
0.00516955
0.00547695
0.00580263
0.00614767
0.00651323
0.00690053
0.00731085
0.00774558
0.00820615
0.00177189
0.00177189
0.00177189
0.00177189
0.00177189
0.00177189
0.00177189
0.00177189
0.00177189
0.00177189
0.00177189
0.00177189
0.00177189
0.00177189
0.00177189
0.00177189
0.00177189
0.00177189
0.00177189
0.00177189
0.00195244
0.00206854
0.00219154
0.00232185
0.00245992
0.00260619
0.00276117
0.00292535
0.0030993
0.0032836
0.00347885
0.00368571
0.00390488
0.00413707
0.00438308
0.00464371
0.00491984
0.00521239
0.00552233
0.00585071
0.00619861
0.0065672
0.0069577
0.00737143
0.00780976
0.0016863
0.0016863
0.0016863
0.0016863
0.0016863
0.0016863
0.0016863
0.0016863
0.0016863
0.0016863
0.0016863
0.0016863
0.0016863
0.0016863
0.0016863
0.0016863
0.0016863
0.0016863
0.0016863
0.0016863
0.00185813
0.00196862
0.00208568
0.0022097
0.00234109
0.0024803
0.00262779
0.00278404
0.00294959
0.00312498
0.00331081
0.00350768
0.00371625
0.00393723
0.00417135
0.0044194
0.00468219
0.0049606
0.00525558
0.00556809
0.00589919
0.00624997
0.00662161
0.00701535
0.00743251
0.00160484
0.00160484
0.00160484
0.00160484
0.00160484
0.00160484
0.00160484
0.00160484
0.00160484
0.00160484
0.00160484
0.00160484
0.00160484
0.00160484
0.00160484
0.00160484
0.00160484
0.00160484
0.00160484
0.00160484
0.00176837
0.00187352
0.00198493
0.00210296
0.00222801
0.00236049
0.00250085
0.00264956
0.00280711
0.00297403
0.00315088
0.00333824
0.00353674
0.00374705
0.00396986
0.00420592
0.00445601
0.00472098
0.00500171
0.00529912
0.00561423
0.00594807
0.00630176
0.00667648
0.00707348
0.00152732
0.00152732
0.00152732
0.00152732
0.00152732
0.00152732
0.00152732
0.00152732
0.00152732
0.00152732
0.00152732
0.00152732
0.00152732
0.00152732
0.00152732
0.00152732
0.00152732
0.00152732
0.00152732
0.00152732
0.00168295
0.00178302
0.00188905
0.00200138
0.00212038
0.00224647
0.00238005
0.00252158
0.00267152
0.00283037
0.00299868
0.00317699
0.0033659
0.00356605
0.00377809
0.00400275
0.00424077
0.00449294
0.0047601
0.00504315
0.00534303
0.00566075
0.00599735
0.00635397
0.0067318
0.00145354
0.00145354
0.00145354
0.00145354
0.00145354
0.00145354
0.00145354
0.00145354
0.00145354
0.00145354
0.00145354
0.00145354
0.00145354
0.00145354
0.00145354
0.00145354
0.00145354
0.00145354
0.00145354
0.00145354
0.00160165
0.00169689
0.0017978
0.0019047
0.00201796
0.00213795
0.00226508
0.00239977
0.00254247
0.00269365
0.00285382
0.00302352
0.00320331
0.00339379
0.00359559
0.0038094
0.00403592
0.00427591
0.00453016
0.00479954
0.00508494
0.0053873
0.00570765
0.00604704
0.00640662
0.00138333
0.00138333
0.00138333
0.00138333
0.00138333
0.00138333
0.00138333
0.00138333
0.00138333
0.00138333
0.00138333
0.00138333
0.00138333
0.00138333
0.00138333
0.00138333
0.00138333
0.00138333
0.00138333
0.00138333
0.00152429
0.00161493
0.00171095
0.00181269
0.00192048
0.00203468
0.00215567
0.00228385
0.00241966
0.00256354
0.00271597
0.00287747
0.00304857
0.00322985
0.00342191
0.00362539
0.00384096
0.00406936
0.00431134
0.0045677
0.00483931
0.00512707
0.00543194
0.00575494
0.00609715
0.00131651
0.00131651
0.00131651
0.00131651
0.00131651
0.00131651
0.00131651
0.00131651
0.00131651
0.00131651
0.00131651
0.00131651
0.00131651
0.00131651
0.00131651
0.00131651
0.00131651
0.00131651
0.00131651
0.00131651
0.00145066
0.00153692
0.00162831
0.00172513
0.00182771
0.00193639
0.00205154
0.00217353
0.00230277
0.0024397
0.00258478
0.00273848
0.00290131
0.00307383
0.00325661
0.00345026
0.00365543
0.00387279
0.00410308
0.00434706
0.00460555
0.00487941
0.00516955
0.00547695
0.00580263
0.00125291
0.00125291
0.00125291
0.00125291
0.00125291
0.00125291
0.00125291
0.00125291
0.00125291
0.00125291
0.00125291
0.00125291
0.00125291
0.00125291
0.00125291
0.00125291
0.00125291
0.00125291
0.00125291
0.00125291
0.00138058
0.00146268
0.00154965
0.0016418
0.00173943
0.00184286
0.00195244
0.00206854
0.00219154
0.00232185
0.00245992
0.00260619
0.00276117
0.00292535
0.0030993
0.0032836
0.00347885
0.00368571
0.00390488
0.00413707
0.00438308
0.00464371
0.00491984
0.00521239
0.00552233
0.00119239
0.00119239
0.00119239
0.00119239
0.00119239
0.00119239
0.00119239
0.00119239
0.00119239
0.00119239
0.00119239
0.00119239
0.00119239
0.00119239
0.00119239
0.00119239
0.00119239
0.00119239
0.00119239
0.00119239
0.00131389
0.00139202
0.0014748
0.00156249
0.0016554
0.00175384
0.00185813
0.00196862
0.00208568
0.0022097
0.00234109
0.0024803
0.00262779
0.00278404
0.00294959
0.00312498
0.00331081
0.00350768
0.00371625
0.00393723
0.00417135
0.0044194
0.00468219
0.0049606
0.00525558
0.00113479
0.00113479
0.00113479
0.00113479
0.00113479
0.00113479
0.00113479
0.00113479
0.00113479
0.00113479
0.00113479
0.00113479
0.00113479
0.00113479
0.00113479
0.00113479
0.00113479
0.00113479
0.00113479
0.00113479
0.00125043
0.00132478
0.00140356
0.00148702
0.00157544
0.00166912
0.00176837
0.00187352
0.00198493
0.00210296
0.00222801
0.00236049
0.00250085
0.00264956
0.00280711
0.00297403
0.00315088
0.00333824
0.00353674
0.00374705
0.00396986
0.00420592
0.00445601
0.00472098
0.00500171
0.00107998
0.00107998
0.00107998
0.00107998
0.00107998
0.00107998
0.00107998
0.00107998
0.00107998
0.00107998
0.00107998
0.00107998
0.00107998
0.00107998
0.00107998
0.00107998
0.00107998
0.00107998
0.00107998
0.00107998
0.00119003
0.00126079
0.00133576
0.00141519
0.00149934
0.00158849
0.00168295
0.00178302
0.00188905
0.00200138
0.00212038
0.00224647
0.00238005
0.00252158
0.00267152
0.00283037
0.00299868
0.00317699
0.0033659
0.00356605
0.00377809
0.00400275
0.00424077
0.00449294
0.0047601
0.000868056
0.000868056
0.000868056
0.000868056
0.000868056
0.000868056
0.000868056
0.000868056
0.000868056
0.000868056
0.000868056
0.000868056
0.000868056
0.000868056
0.000868056
0.000868056
0.000868056
0.000868056
0.000868056
0.000868056
0.000956509
0.00101339
0.00107365
0.00113749
0.00120513
0.00127679
0.00135271
0.00143314
0.00151836
0.00160865
0.00170431
0.00180565
0.00191302
0.00202677
0.00214729
0.00227498
0.00241025
0.00255357
0.00270542
0.00286629
0.00303673
0.0032173
0.00340861
0.0036113
0.00382604
0.000868056
0.000868056
0.000868056
0.000868056
0.000868056
0.000868056
0.000868056
0.000868056
0.000868056
0.000868056
0.000868056
0.000868056
0.000868056
0.000868056
0.000868056
0.000868056
0.000868056
0.000868056
0.000868056
0.000868056
0.000956509
0.00101339
0.00107365
0.00113749
0.00120513
0.00127679
0.00135271
0.00143314
0.00151836
0.00160865
0.00170431
0.00180565
0.00191302
0.00202677
0.00214729
0.00227498
0.00241025
0.00255357
0.00270542
0.00286629
0.00303673
0.0032173
0.00340861
0.0036113
0.00382604
0.000868056
0.000868056
0.000868056
0.000868056
0.000868056
0.000868056
0.000868056
0.000868056
0.000868056
0.000868056
0.000868056
0.000868056
0.000868056
0.000868056
0.000868056
0.000868056
0.000868056
0.000868056
0.000868056
0.000868056
0.000956509
0.00101339
0.00107365
0.00113749
0.00120513
0.00127679
0.00135271
0.00143314
0.00151836
0.00160865
0.00170431
0.00180565
0.00191302
0.00202677
0.00214729
0.00227498
0.00241025
0.00255357
0.00270542
0.00286629
0.00303673
0.0032173
0.00340861
0.0036113
0.00382604
0.000868056
0.000868056
0.000868056
0.000868056
0.000868056
0.000868056
0.000868056
0.000868056
0.000868056
0.000868056
0.000868056
0.000868056
0.000868056
0.000868056
0.000868056
0.000868056
0.000868056
0.000868056
0.000868056
0.000868056
0.000956509
0.00101339
0.00107365
0.00113749
0.00120513
0.00127679
0.00135271
0.00143314
0.00151836
0.00160865
0.00170431
0.00180565
0.00191302
0.00202677
0.00214729
0.00227498
0.00241025
0.00255357
0.00270542
0.00286629
0.00303673
0.0032173
0.00340861
0.0036113
0.00382604
0.000868056
0.000868056
0.000868056
0.000868056
0.000868056
0.000868056
0.000868056
0.000868056
0.000868056
0.000868056
0.000868056
0.000868056
0.000868056
0.000868056
0.000868056
0.000868056
0.000868056
0.000868056
0.000868056
0.000868056
0.000956509
0.00101339
0.00107365
0.00113749
0.00120513
0.00127679
0.00135271
0.00143314
0.00151836
0.00160865
0.00170431
0.00180565
0.00191302
0.00202677
0.00214729
0.00227498
0.00241025
0.00255357
0.00270542
0.00286629
0.00303673
0.0032173
0.00340861
0.0036113
0.00382604
0.000868056
0.000868056
0.000868056
0.000868056
0.000868056
0.000868056
0.000868056
0.000868056
0.000868056
0.000868056
0.000868056
0.000868056
0.000868056
0.000868056
0.000868056
0.000868056
0.000868056
0.000868056
0.000868056
0.000868056
0.000956509
0.00101339
0.00107365
0.00113749
0.00120513
0.00127679
0.00135271
0.00143314
0.00151836
0.00160865
0.00170431
0.00180565
0.00191302
0.00202677
0.00214729
0.00227498
0.00241025
0.00255357
0.00270542
0.00286629
0.00303673
0.0032173
0.00340861
0.0036113
0.00382604
0.000868056
0.000868056
0.000868056
0.000868056
0.000868056
0.000868056
0.000868056
0.000868056
0.000868056
0.000868056
0.000868056
0.000868056
0.000868056
0.000868056
0.000868056
0.000868056
0.000868056
0.000868056
0.000868056
0.000868056
0.000956509
0.00101339
0.00107365
0.00113749
0.00120513
0.00127679
0.00135271
0.00143314
0.00151836
0.00160865
0.00170431
0.00180565
0.00191302
0.00202677
0.00214729
0.00227498
0.00241025
0.00255357
0.00270542
0.00286629
0.00303673
0.0032173
0.00340861
0.0036113
0.00382604
0.000868056
0.000868056
0.000868056
0.000868056
0.000868056
0.000868056
0.000868056
0.000868056
0.000868056
0.000868056
0.000868056
0.000868056
0.000868056
0.000868056
0.000868056
0.000868056
0.000868056
0.000868056
0.000868056
0.000868056
0.000956509
0.00101339
0.00107365
0.00113749
0.00120513
0.00127679
0.00135271
0.00143314
0.00151836
0.00160865
0.00170431
0.00180565
0.00191302
0.00202677
0.00214729
0.00227498
0.00241025
0.00255357
0.00270542
0.00286629
0.00303673
0.0032173
0.00340861
0.0036113
0.00382604
0.000868056
0.000868056
0.000868056
0.000868056
0.000868056
0.000868056
0.000868056
0.000868056
0.000868056
0.000868056
0.000868056
0.000868056
0.000868056
0.000868056
0.000868056
0.000868056
0.000868056
0.000868056
0.000868056
0.000868056
0.000956509
0.00101339
0.00107365
0.00113749
0.00120513
0.00127679
0.00135271
0.00143314
0.00151836
0.00160865
0.00170431
0.00180565
0.00191302
0.00202677
0.00214729
0.00227498
0.00241025
0.00255357
0.00270542
0.00286629
0.00303673
0.0032173
0.00340861
0.0036113
0.00382604
0.000868056
0.000868056
0.000868056
0.000868056
0.000868056
0.000868056
0.000868056
0.000868056
0.000868056
0.000868056
0.000868056
0.000868056
0.000868056
0.000868056
0.000868056
0.000868056
0.000868056
0.000868056
0.000868056
0.000868056
0.000956509
0.00101339
0.00107365
0.00113749
0.00120513
0.00127679
0.00135271
0.00143314
0.00151836
0.00160865
0.00170431
0.00180565
0.00191302
0.00202677
0.00214729
0.00227498
0.00241025
0.00255357
0.00270542
0.00286629
0.00303673
0.0032173
0.00340861
0.0036113
0.00382604
0.000868056
0.000868056
0.000868056
0.000868056
0.000868056
0.000868056
0.000868056
0.000868056
0.000868056
0.000868056
0.000868056
0.000868056
0.000868056
0.000868056
0.000868056
0.000868056
0.000868056
0.000868056
0.000868056
0.000868056
0.000956509
0.00101339
0.00107365
0.00113749
0.00120513
0.00127679
0.00135271
0.00143314
0.00151836
0.00160865
0.00170431
0.00180565
0.00191302
0.00202677
0.00214729
0.00227498
0.00241025
0.00255357
0.00270542
0.00286629
0.00303673
0.0032173
0.00340861
0.0036113
0.00382604
0.000868056
0.000868056
0.000868056
0.000868056
0.000868056
0.000868056
0.000868056
0.000868056
0.000868056
0.000868056
0.000868056
0.000868056
0.000868056
0.000868056
0.000868056
0.000868056
0.000868056
0.000868056
0.000868056
0.000868056
0.000956509
0.00101339
0.00107365
0.00113749
0.00120513
0.00127679
0.00135271
0.00143314
0.00151836
0.00160865
0.00170431
0.00180565
0.00191302
0.00202677
0.00214729
0.00227498
0.00241025
0.00255357
0.00270542
0.00286629
0.00303673
0.0032173
0.00340861
0.0036113
0.00382604
0.000868056
0.000868056
0.000868056
0.000868056
0.000868056
0.000868056
0.000868056
0.000868056
0.000868056
0.000868056
0.000868056
0.000868056
0.000868056
0.000868056
0.000868056
0.000868056
0.000868056
0.000868056
0.000868056
0.000868056
0.000956509
0.00101339
0.00107365
0.00113749
0.00120513
0.00127679
0.00135271
0.00143314
0.00151836
0.00160865
0.00170431
0.00180565
0.00191302
0.00202677
0.00214729
0.00227498
0.00241025
0.00255357
0.00270542
0.00286629
0.00303673
0.0032173
0.00340861
0.0036113
0.00382604
0.000868056
0.000868056
0.000868056
0.000868056
0.000868056
0.000868056
0.000868056
0.000868056
0.000868056
0.000868056
0.000868056
0.000868056
0.000868056
0.000868056
0.000868056
0.000868056
0.000868056
0.000868056
0.000868056
0.000868056
0.000956509
0.00101339
0.00107365
0.00113749
0.00120513
0.00127679
0.00135271
0.00143314
0.00151836
0.00160865
0.00170431
0.00180565
0.00191302
0.00202677
0.00214729
0.00227498
0.00241025
0.00255357
0.00270542
0.00286629
0.00303673
0.0032173
0.00340861
0.0036113
0.00382604
0.000868056
0.000868056
0.000868056
0.000868056
0.000868056
0.000868056
0.000868056
0.000868056
0.000868056
0.000868056
0.000868056
0.000868056
0.000868056
0.000868056
0.000868056
0.000868056
0.000868056
0.000868056
0.000868056
0.000868056
0.000956509
0.00101339
0.00107365
0.00113749
0.00120513
0.00127679
0.00135271
0.00143314
0.00151836
0.00160865
0.00170431
0.00180565
0.00191302
0.00202677
0.00214729
0.00227498
0.00241025
0.00255357
0.00270542
0.00286629
0.00303673
0.0032173
0.00340861
0.0036113
0.00382604
0.000868056
0.000868056
0.000868056
0.000868056
0.000868056
0.000868056
0.000868056
0.000868056
0.000868056
0.000868056
0.000868056
0.000868056
0.000868056
0.000868056
0.000868056
0.000868056
0.000868056
0.000868056
0.000868056
0.000868056
0.000956509
0.00101339
0.00107365
0.00113749
0.00120513
0.00127679
0.00135271
0.00143314
0.00151836
0.00160865
0.00170431
0.00180565
0.00191302
0.00202677
0.00214729
0.00227498
0.00241025
0.00255357
0.00270542
0.00286629
0.00303673
0.0032173
0.00340861
0.0036113
0.00382604
0.000868056
0.000868056
0.000868056
0.000868056
0.000868056
0.000868056
0.000868056
0.000868056
0.000868056
0.000868056
0.000868056
0.000868056
0.000868056
0.000868056
0.000868056
0.000868056
0.000868056
0.000868056
0.000868056
0.000868056
0.000956509
0.00101339
0.00107365
0.00113749
0.00120513
0.00127679
0.00135271
0.00143314
0.00151836
0.00160865
0.00170431
0.00180565
0.00191302
0.00202677
0.00214729
0.00227498
0.00241025
0.00255357
0.00270542
0.00286629
0.00303673
0.0032173
0.00340861
0.0036113
0.00382604
0.000868056
0.000868056
0.000868056
0.000868056
0.000868056
0.000868056
0.000868056
0.000868056
0.000868056
0.000868056
0.000868056
0.000868056
0.000868056
0.000868056
0.000868056
0.000868056
0.000868056
0.000868056
0.000868056
0.000868056
0.000956509
0.00101339
0.00107365
0.00113749
0.00120513
0.00127679
0.00135271
0.00143314
0.00151836
0.00160865
0.00170431
0.00180565
0.00191302
0.00202677
0.00214729
0.00227498
0.00241025
0.00255357
0.00270542
0.00286629
0.00303673
0.0032173
0.00340861
0.0036113
0.00382604
0.000868056
0.000868056
0.000868056
0.000868056
0.000868056
0.000868056
0.000868056
0.000868056
0.000868056
0.000868056
0.000868056
0.000868056
0.000868056
0.000868056
0.000868056
0.000868056
0.000868056
0.000868056
0.000868056
0.000868056
0.000956509
0.00101339
0.00107365
0.00113749
0.00120513
0.00127679
0.00135271
0.00143314
0.00151836
0.00160865
0.00170431
0.00180565
0.00191302
0.00202677
0.00214729
0.00227498
0.00241025
0.00255357
0.00270542
0.00286629
0.00303673
0.0032173
0.00340861
0.0036113
0.00382604
0.000868056
0.000868056
0.000868056
0.000868056
0.000868056
0.000868056
0.000868056
0.000868056
0.000868056
0.000868056
0.000868056
0.000868056
0.000868056
0.000868056
0.000868056
0.000868056
0.000868056
0.000868056
0.000868056
0.000868056
0.000956509
0.00101339
0.00107365
0.00113749
0.00120513
0.00127679
0.00135271
0.00143314
0.00151836
0.00160865
0.00170431
0.00180565
0.00191302
0.00202677
0.00214729
0.00227498
0.00241025
0.00255357
0.00270542
0.00286629
0.00303673
0.0032173
0.00340861
0.0036113
0.00382604
0.000868056
0.000868056
0.000868056
0.000868056
0.000868056
0.000868056
0.000868056
0.000868056
0.000868056
0.000868056
0.000868056
0.000868056
0.000868056
0.000868056
0.000868056
0.000868056
0.000868056
0.000868056
0.000868056
0.000868056
0.000956509
0.00101339
0.00107365
0.00113749
0.00120513
0.00127679
0.00135271
0.00143314
0.00151836
0.00160865
0.00170431
0.00180565
0.00191302
0.00202677
0.00214729
0.00227498
0.00241025
0.00255357
0.00270542
0.00286629
0.00303673
0.0032173
0.00340861
0.0036113
0.00382604
0.000868056
0.000868056
0.000868056
0.000868056
0.000868056
0.000868056
0.000868056
0.000868056
0.000868056
0.000868056
0.000868056
0.000868056
0.000868056
0.000868056
0.000868056
0.000868056
0.000868056
0.000868056
0.000868056
0.000868056
0.000956509
0.00101339
0.00107365
0.00113749
0.00120513
0.00127679
0.00135271
0.00143314
0.00151836
0.00160865
0.00170431
0.00180565
0.00191302
0.00202677
0.00214729
0.00227498
0.00241025
0.00255357
0.00270542
0.00286629
0.00303673
0.0032173
0.00340861
0.0036113
0.00382604
0.000868056
0.000868056
0.000868056
0.000868056
0.000868056
0.000868056
0.000868056
0.000868056
0.000868056
0.000868056
0.000868056
0.000868056
0.000868056
0.000868056
0.000868056
0.000868056
0.000868056
0.000868056
0.000868056
0.000868056
0.000956509
0.00101339
0.00107365
0.00113749
0.00120513
0.00127679
0.00135271
0.00143314
0.00151836
0.00160865
0.00170431
0.00180565
0.00191302
0.00202677
0.00214729
0.00227498
0.00241025
0.00255357
0.00270542
0.00286629
0.00303673
0.0032173
0.00340861
0.0036113
0.00382604
0.000868056
0.000868056
0.000868056
0.000868056
0.000868056
0.000868056
0.000868056
0.000868056
0.000868056
0.000868056
0.000868056
0.000868056
0.000868056
0.000868056
0.000868056
0.000868056
0.000868056
0.000868056
0.000868056
0.000868056
0.000956509
0.00101339
0.00107365
0.00113749
0.00120513
0.00127679
0.00135271
0.00143314
0.00151836
0.00160865
0.00170431
0.00180565
0.00191302
0.00202677
0.00214729
0.00227498
0.00241025
0.00255357
0.00270542
0.00286629
0.00303673
0.0032173
0.00340861
0.0036113
0.00382604
0.000868056
0.000868056
0.000868056
0.000868056
0.000868056
0.000868056
0.000868056
0.000868056
0.000868056
0.000868056
0.000868056
0.000868056
0.000868056
0.000868056
0.000868056
0.000868056
0.000868056
0.000868056
0.000868056
0.000868056
0.000956509
0.00101339
0.00107365
0.00113749
0.00120513
0.00127679
0.00135271
0.00143314
0.00151836
0.00160865
0.00170431
0.00180565
0.00191302
0.00202677
0.00214729
0.00227498
0.00241025
0.00255357
0.00270542
0.00286629
0.00303673
0.0032173
0.00340861
0.0036113
0.00382604
0.000868056
0.000868056
0.000868056
0.000868056
0.000868056
0.000868056
0.000868056
0.000868056
0.000868056
0.000868056
0.000868056
0.000868056
0.000868056
0.000868056
0.000868056
0.000868056
0.000868056
0.000868056
0.000868056
0.000868056
0.000956509
0.00101339
0.00107365
0.00113749
0.00120513
0.00127679
0.00135271
0.00143314
0.00151836
0.00160865
0.00170431
0.00180565
0.00191302
0.00202677
0.00214729
0.00227498
0.00241025
0.00255357
0.00270542
0.00286629
0.00303673
0.0032173
0.00340861
0.0036113
0.00382604
0.000868056
0.000868056
0.000868056
0.000868056
0.000868056
0.000868056
0.000868056
0.000868056
0.000868056
0.000868056
0.000868056
0.000868056
0.000868056
0.000868056
0.000868056
0.000868056
0.000868056
0.000868056
0.000868056
0.000868056
0.000956509
0.00101339
0.00107365
0.00113749
0.00120513
0.00127679
0.00135271
0.00143314
0.00151836
0.00160865
0.00170431
0.00180565
0.00191302
0.00202677
0.00214729
0.00227498
0.00241025
0.00255357
0.00270542
0.00286629
0.00303673
0.0032173
0.00340861
0.0036113
0.00382604
0.000868056
0.000868056
0.000868056
0.000868056
0.000868056
0.000868056
0.000868056
0.000868056
0.000868056
0.000868056
0.000868056
0.000868056
0.000868056
0.000868056
0.000868056
0.000868056
0.000868056
0.000868056
0.000868056
0.000868056
0.000956509
0.00101339
0.00107365
0.00113749
0.00120513
0.00127679
0.00135271
0.00143314
0.00151836
0.00160865
0.00170431
0.00180565
0.00191302
0.00202677
0.00214729
0.00227498
0.00241025
0.00255357
0.00270542
0.00286629
0.00303673
0.0032173
0.00340861
0.0036113
0.00382604
0.000868056
0.000868056
0.000868056
0.000868056
0.000868056
0.000868056
0.000868056
0.000868056
0.000868056
0.000868056
0.000868056
0.000868056
0.000868056
0.000868056
0.000868056
0.000868056
0.000868056
0.000868056
0.000868056
0.000868056
0.000956509
0.00101339
0.00107365
0.00113749
0.00120513
0.00127679
0.00135271
0.00143314
0.00151836
0.00160865
0.00170431
0.00180565
0.00191302
0.00202677
0.00214729
0.00227498
0.00241025
0.00255357
0.00270542
0.00286629
0.00303673
0.0032173
0.00340861
0.0036113
0.00382604
0.000868056
0.000868056
0.000868056
0.000868056
0.000868056
0.000868056
0.000868056
0.000868056
0.000868056
0.000868056
0.000868056
0.000868056
0.000868056
0.000868056
0.000868056
0.000868056
0.000868056
0.000868056
0.000868056
0.000868056
0.000956509
0.00101339
0.00107365
0.00113749
0.00120513
0.00127679
0.00135271
0.00143314
0.00151836
0.00160865
0.00170431
0.00180565
0.00191302
0.00202677
0.00214729
0.00227498
0.00241025
0.00255357
0.00270542
0.00286629
0.00303673
0.0032173
0.00340861
0.0036113
0.00382604
0.000868056
0.000868056
0.000868056
0.000868056
0.000868056
0.000868056
0.000868056
0.000868056
0.000868056
0.000868056
0.000868056
0.000868056
0.000868056
0.000868056
0.000868056
0.000868056
0.000868056
0.000868056
0.000868056
0.000868056
0.000956509
0.00101339
0.00107365
0.00113749
0.00120513
0.00127679
0.00135271
0.00143314
0.00151836
0.00160865
0.00170431
0.00180565
0.00191302
0.00202677
0.00214729
0.00227498
0.00241025
0.00255357
0.00270542
0.00286629
0.00303673
0.0032173
0.00340861
0.0036113
0.00382604
0.000868056
0.000868056
0.000868056
0.000868056
0.000868056
0.000868056
0.000868056
0.000868056
0.000868056
0.000868056
0.000868056
0.000868056
0.000868056
0.000868056
0.000868056
0.000868056
0.000868056
0.000868056
0.000868056
0.000868056
0.000956509
0.00101339
0.00107365
0.00113749
0.00120513
0.00127679
0.00135271
0.00143314
0.00151836
0.00160865
0.00170431
0.00180565
0.00191302
0.00202677
0.00214729
0.00227498
0.00241025
0.00255357
0.00270542
0.00286629
0.00303673
0.0032173
0.00340861
0.0036113
0.00382604
0.000868056
0.000868056
0.000868056
0.000868056
0.000868056
0.000868056
0.000868056
0.000868056
0.000868056
0.000868056
0.000868056
0.000868056
0.000868056
0.000868056
0.000868056
0.000868056
0.000868056
0.000868056
0.000868056
0.000868056
0.000956509
0.00101339
0.00107365
0.00113749
0.00120513
0.00127679
0.00135271
0.00143314
0.00151836
0.00160865
0.00170431
0.00180565
0.00191302
0.00202677
0.00214729
0.00227498
0.00241025
0.00255357
0.00270542
0.00286629
0.00303673
0.0032173
0.00340861
0.0036113
0.00382604
0.000868056
0.000868056
0.000868056
0.000868056
0.000868056
0.000868056
0.000868056
0.000868056
0.000868056
0.000868056
0.000868056
0.000868056
0.000868056
0.000868056
0.000868056
0.000868056
0.000868056
0.000868056
0.000868056
0.000868056
0.000956509
0.00101339
0.00107365
0.00113749
0.00120513
0.00127679
0.00135271
0.00143314
0.00151836
0.00160865
0.00170431
0.00180565
0.00191302
0.00202677
0.00214729
0.00227498
0.00241025
0.00255357
0.00270542
0.00286629
0.00303673
0.0032173
0.00340861
0.0036113
0.00382604
0.000868056
0.000868056
0.000868056
0.000868056
0.000868056
0.000868056
0.000868056
0.000868056
0.000868056
0.000868056
0.000868056
0.000868056
0.000868056
0.000868056
0.000868056
0.000868056
0.000868056
0.000868056
0.000868056
0.000868056
0.000956509
0.00101339
0.00107365
0.00113749
0.00120513
0.00127679
0.00135271
0.00143314
0.00151836
0.00160865
0.00170431
0.00180565
0.00191302
0.00202677
0.00214729
0.00227498
0.00241025
0.00255357
0.00270542
0.00286629
0.00303673
0.0032173
0.00340861
0.0036113
0.00382604
0.000868056
0.000868056
0.000868056
0.000868056
0.000868056
0.000868056
0.000868056
0.000868056
0.000868056
0.000868056
0.000868056
0.000868056
0.000868056
0.000868056
0.000868056
0.000868056
0.000868056
0.000868056
0.000868056
0.000868056
0.000956509
0.00101339
0.00107365
0.00113749
0.00120513
0.00127679
0.00135271
0.00143314
0.00151836
0.00160865
0.00170431
0.00180565
0.00191302
0.00202677
0.00214729
0.00227498
0.00241025
0.00255357
0.00270542
0.00286629
0.00303673
0.0032173
0.00340861
0.0036113
0.00382604
0.000868056
0.000868056
0.000868056
0.000868056
0.000868056
0.000868056
0.000868056
0.000868056
0.000868056
0.000868056
0.000868056
0.000868056
0.000868056
0.000868056
0.000868056
0.000868056
0.000868056
0.000868056
0.000868056
0.000868056
0.000956509
0.00101339
0.00107365
0.00113749
0.00120513
0.00127679
0.00135271
0.00143314
0.00151836
0.00160865
0.00170431
0.00180565
0.00191302
0.00202677
0.00214729
0.00227498
0.00241025
0.00255357
0.00270542
0.00286629
0.00303673
0.0032173
0.00340861
0.0036113
0.00382604
0.000868056
0.000868056
0.000868056
0.000868056
0.000868056
0.000868056
0.000868056
0.000868056
0.000868056
0.000868056
0.000868056
0.000868056
0.000868056
0.000868056
0.000868056
0.000868056
0.000868056
0.000868056
0.000868056
0.000868056
0.000956509
0.00101339
0.00107365
0.00113749
0.00120513
0.00127679
0.00135271
0.00143314
0.00151836
0.00160865
0.00170431
0.00180565
0.00191302
0.00202677
0.00214729
0.00227498
0.00241025
0.00255357
0.00270542
0.00286629
0.00303673
0.0032173
0.00340861
0.0036113
0.00382604
0.000868056
0.000868056
0.000868056
0.000868056
0.000868056
0.000868056
0.000868056
0.000868056
0.000868056
0.000868056
0.000868056
0.000868056
0.000868056
0.000868056
0.000868056
0.000868056
0.000868056
0.000868056
0.000868056
0.000868056
0.000956509
0.00101339
0.00107365
0.00113749
0.00120513
0.00127679
0.00135271
0.00143314
0.00151836
0.00160865
0.00170431
0.00180565
0.00191302
0.00202677
0.00214729
0.00227498
0.00241025
0.00255357
0.00270542
0.00286629
0.00303673
0.0032173
0.00340861
0.0036113
0.00382604
0.000868056
0.000868056
0.000868056
0.000868056
0.000868056
0.000868056
0.000868056
0.000868056
0.000868056
0.000868056
0.000868056
0.000868056
0.000868056
0.000868056
0.000868056
0.000868056
0.000868056
0.000868056
0.000868056
0.000868056
0.000956509
0.00101339
0.00107365
0.00113749
0.00120513
0.00127679
0.00135271
0.00143314
0.00151836
0.00160865
0.00170431
0.00180565
0.00191302
0.00202677
0.00214729
0.00227498
0.00241025
0.00255357
0.00270542
0.00286629
0.00303673
0.0032173
0.00340861
0.0036113
0.00382604
0.000868056
0.000868056
0.000868056
0.000868056
0.000868056
0.000868056
0.000868056
0.000868056
0.000868056
0.000868056
0.000868056
0.000868056
0.000868056
0.000868056
0.000868056
0.000868056
0.000868056
0.000868056
0.000868056
0.000868056
0.000956509
0.00101339
0.00107365
0.00113749
0.00120513
0.00127679
0.00135271
0.00143314
0.00151836
0.00160865
0.00170431
0.00180565
0.00191302
0.00202677
0.00214729
0.00227498
0.00241025
0.00255357
0.00270542
0.00286629
0.00303673
0.0032173
0.00340861
0.0036113
0.00382604
0.000868056
0.000868056
0.000868056
0.000868056
0.000868056
0.000868056
0.000868056
0.000868056
0.000868056
0.000868056
0.000868056
0.000868056
0.000868056
0.000868056
0.000868056
0.000868056
0.000868056
0.000868056
0.000868056
0.000868056
0.000956509
0.00101339
0.00107365
0.00113749
0.00120513
0.00127679
0.00135271
0.00143314
0.00151836
0.00160865
0.00170431
0.00180565
0.00191302
0.00202677
0.00214729
0.00227498
0.00241025
0.00255357
0.00270542
0.00286629
0.00303673
0.0032173
0.00340861
0.0036113
0.00382604
0.000868056
0.000868056
0.000868056
0.000868056
0.000868056
0.000868056
0.000868056
0.000868056
0.000868056
0.000868056
0.000868056
0.000868056
0.000868056
0.000868056
0.000868056