/*--------------------------------*- C++ -*----------------------------------*\
| =========                 |                                                 |
| \\      /  F ield         | OpenFOAM: The Open Source CFD Toolbox           |
|  \\    /   O peration     | Version:  v1906                                 |
|   \\  /    A nd           | Web:      www.OpenFOAM.com                      |
|    \\/     M anipulation  |                                                 |
\*---------------------------------------------------------------------------*/
FoamFile
{
    version     2.0;
    format      ascii;
    class       dictionary;
    object      blockMeshDict;
}
// * * * * * * * * * * * * * * * * * * * * * * * * * * * * * * * * * * * * * //

scale   1;

H 460e-3;
H2 360e-3;
D #eval "sqrt(pow($H2/2,2)*pi())";

vertices
(
    (0 0 0)
    ($D 0 0)
    ($D $H 0)
    (0 $H 0)
    (0 0 $D)
    ($D 0 $D)
    ($D $H $D)
    (0 $H $D)
);

blocks
(
    hex (0 1 2 3 4 5 6 7) (1 100 1) simpleGrading (1 1 1)
);

edges
(
);

boundary
(
    floor
    {
        type patch;
        faces
        (
            (1 5 4 0)
        );
    }
    ceiling
    {
        type patch;
        faces
        (
            (3 7 6 2)
        );
    }
    frontAndBack
    {
        type empty;
        faces
        (
            (0 4 7 3)
            (2 6 5 1)
            (0 3 2 1)
            (4 5 6 7)
        );
    }
);

mergePatchPairs
(
);

// ************************************************************************* //
