/*--------------------------------*- C++ -*----------------------------------*\
| =========                 |                                                 |
| \\      /  F ield         | OpenFOAM: The Open Source CFD Toolbox           |
|  \\    /   O peration     | Version:  v1906                                 |
|   \\  /    A nd           | Web:      www.OpenFOAM.com                      |
|    \\/     M anipulation  |                                                 |
\*---------------------------------------------------------------------------*/
FoamFile
{
    version     2.0;
    format      ascii;
    class       dictionary;
    location    "system";
    object      controlDict;
}
// * * * * * * * * * * * * * * * * * * * * * * * * * * * * * * * * * * * * * //

application     phtMultiSolidFoam;

startFrom       startTime;

startTime       0;

stopAt          endTime;

endTime         #eval "3600*5";//144000;//108000;//36000;//

deltaT          0.01;//30;//0.1;

writeControl    adjustableRunTime;

writeInterval   60;//3600;

purgeWrite      0;

writeFormat     binary;//ascii;

writePrecision  6;

writeCompression off;

timeFormat      general;

timePrecision   6;

runTimeModifiable true;

adjustTimeStep  yes;

maxCo           100;//450;
maxDeltaT       5;

functions 
{ 
    #includeFunc  singleGraph
//    #includeFunc  probes
	difference
	{
		type coded;
		libs (utilityFunctionObjects);

		// Name of on-the-fly generated functionObject
		name writeHSolid;
		codeWrite
		#{
			// Lookup h.solid
			const volScalarField he(mesh().lookupObject<volScalarField>("h.solid"));

			// Write
			if (mesh().time().writeTime()) he.write();
		#};
	}/**/
}

// ************************************************************************* //
